%chk=benzene_trip.chk
# UHF/3-21G opt nosym

 _Benzene

1  2
H
C  1  r2
C  2  r3  1  a3
H  3  r2  2  a3  1  d4
C  3  r3  2  a3  1  d5
H  5  r2  3  a3  2  d5
C  5  r3  3  a3  2  d4
H  7  r2  5  a3  3  d5
C  7  r3  5  a3  3  d4
H  9  r2  7  a3  5  d5
C  9  r3  7  a3  5  d4
H  11  r2  9  a3  7  d5
Variables:
r2= 1.0947
r3= 1.3911
a3= 120.00
d4= 360.00
d5= 180.00